
 ANSYS Academic Teaching Advanced                  


 *------------------------------------------------------------------*
 |                                                                  |
 |   W E L C O M E   T O   T H E   A N S Y S (R)  P R O G R A M     |
 |                                                                  |
 *------------------------------------------------------------------*




 ***************************************************************
 *            ANSYS Release 16.2     LEGAL NOTICES             *
 ***************************************************************
 *                                                             *
 * Copyright 2015 SAS IP, Inc.  All rights reserved.           *
 * Unauthorized use, distribution or duplication is            *
 * prohibited.                                                 *
 *                                                             *
 * Ansys is a registered trademark of ANSYS, Inc. or its       *
 * subsidiaries in the United States or other countries.       *
 * See the ANSYS, Inc. online documentation or the ANSYS, Inc. *
 * documentation CD or online help for the complete Legal      *
 * Notice.                                                     *
 *                                                             *
 ***************************************************************
 *                                                             *
 * THIS ANSYS SOFTWARE PRODUCT AND PROGRAM DOCUMENTATION       *
 * INCLUDE TRADE SECRETS AND CONFIDENTIAL AND PROPRIETARY      *
 * PRODUCTS OF ANSYS, INC., ITS SUBSIDIARIES, OR LICENSORS.    *
 * The software products and documentation are furnished by    *
 * ANSYS, Inc. or its subsidiaries under a software license    *
 * agreement that contains provisions concerning               *
 * non-disclosure, copying, length and nature of use,          *
 * compliance with exporting laws, warranties, disclaimers,    *
 * limitations of liability, and remedies, and other           *
 * provisions.  The software products and documentation may be *
 * used, disclosed, transferred, or copied only in accordance  *
 * with the terms and conditions of that software license      *
 * agreement.                                                  *
 *                                                             *
 * ANSYS, Inc. is a UL registered                              *
 * ISO 9001:2008 company.                                      *
 *                                                             *
 ***************************************************************
 *                                                             *
 * This product is subject to U.S. laws governing export and   *
 * re-export.                                                  *
 *                                                             *
 * For U.S. Government users, except as specifically granted   *
 * by the ANSYS, Inc. software license agreement, the use,     *
 * duplication, or disclosure by the United States Government  *
 * is subject to restrictions stated in the ANSYS, Inc.        *
 * software license agreement and FAR 12.212 (for non-DOD      *
 * licenses).                                                  *
 *                                                             *
 ***************************************************************

 Release 16.2
     
 Point Releases and Patches installed:   
     
 ANSYS, Inc. Products Release 16.2   
 ANSYS Mechanical Products Release 16.2  
 ANSYS Customization Files for User Programmable Features Release 16.2   
 ANSYS Autodyn Release 16.2  
 ANSYS LS-DYNA Release 16.2  
 ANSYS CFX (includes ANSYS CFD-Post) Release 16.2
 ANSYS Fluent (includes ANSYS CFD-Post) Release 16.2 
 ANSYS TurboGrid Release 16.2
 ANSYS Polyflow (includes ANSYS CFD-Post) Release 16.2   
 ANSYS CFD-Post only Release 16.2
 ANSYS ICEM CFD Release 16.2 
 ANSYS Aqwa Release 16.2 
 ANSYS, Inc. License Manager Release 16.2


          *****  ANSYS COMMAND LINE ARGUMENTS  *****
  BATCH MODE REQUESTED (-b)    = NOLIST
  INPUT FILE COPY MODE (-c)    = COPY
  SHARED MEMORY PARALLEL REQUESTED
    SINGLE PROCESS WITH   2 THREADS REQUESTED
    TOTAL OF     2 CORES REQUESTED
  DESIGNXPLORER REQUESTED
  START-UP FILE MODE           = NOREAD
  STOP FILE MODE               = NOREAD

 RELEASE= Release 16.2         BUILD= 16.2      UP20150629   VERSION=WINDOWS x64 
 CURRENT JOBNAME=file  14:55:58  DEC 13, 2015 CP=      1.310


 PARAMETER _DS_PROGRESS =     999.0000000    

 /INPUT FILE= ds.dat  LINE=       0

 *GET  _WALLSTRT  FROM  ACTI  ITEM=TIME WALL  VALUE=  14.9330556    

 TITLE= 
 model_01--Static Structural (A5)                                              

  ACT Extensions:

 SET PARAMETER DIMENSIONS ON  _WB_PROJECTSCRATCH_DIR
  TYPE=STRI  DIMENSIONS=      248        1        1

 PARAMETER _WB_PROJECTSCRATCH_DIR(1) = H:\Version\git\ag\ansys\kontakt\_ProjectScratch\Scr98C7\

 SET PARAMETER DIMENSIONS ON  _WB_SOLVERFILES_DIR
  TYPE=STRI  DIMENSIONS=      248        1        1

 PARAMETER _WB_SOLVERFILES_DIR(1) = H:\Version\git\ag\ansys\kontakt\model_01_files\dp0\SYS\MECH\

 SET PARAMETER DIMENSIONS ON  _WB_USERFILES_DIR
  TYPE=STRI  DIMENSIONS=      248        1        1

 PARAMETER _WB_USERFILES_DIR(1) = H:\Version\git\ag\ansys\kontakt\model_01_files\user_files\
 --- Data in consistent MKS units. See Solving Units in the help system for more

 MKS UNITS SPECIFIED FOR INTERNAL    
  LENGTH        (l)  = METER (M)
  MASS          (M)  = KILOGRAM (KG)
  TIME          (t)  = SECOND (SEC)
  TEMPERATURE   (T)  = CELSIUS (C)
  TOFFSET            = 273.0
  CHARGE        (Q)  = COULOMB
  FORCE         (f)  = NEWTON (N) (KG-M/SEC2)
  HEAT               = JOULE (N-M)

  PRESSURE           = PASCAL (NEWTON/M**2)
  ENERGY        (W)  = JOULE (N-M)
  POWER         (P)  = WATT (N-M/SEC)
  CURRENT       (i)  = AMPERE (COULOMBS/SEC)
  CAPACITANCE   (C)  = FARAD
  INDUCTANCE    (L)  = HENRY
  MAGNETIC FLUX      = WEBER
  RESISTANCE    (R)  = OHM
  ELECTRIC POTENTIAL = VOLT

 INPUT  UNITS ARE ALSO SET TO MKS 

 *** ANSYS - ENGINEERING ANALYSIS SYSTEM  RELEASE Release 16.2     16.2     ***
 ANSYS Academic Teaching Advanced                  
 01051478  VERSION=WINDOWS x64   14:55:59  DEC 13, 2015 CP=      1.388

 model_01--Static Structural (A5)                                              



          ***** ANSYS ANALYSIS DEFINITION (PREP7) *****
 *********** Nodes for the whole assembly ***********
 *********** Elements for Body 1 "block" ***********
 *********** Elements for Body 2 "pipe" ***********
 *********** Send User Defined Coordinate System(s) ***********
 *********** Set Reference Temperature ***********
 *********** Send Materials ***********
 *********** Create Contact "Frictional - block To pipe" ***********
             Real Constant Set For Above Contact Is 4 & 3
 *********** Create Elastic Support ***********
 *********** Define Force Using Surface Effect Elements ***********
 *********** Send Compression Only Support ***********
 *********** Construct Weak Springs, Prototype 1 ***********
 *********** Construct Weak Springs, Prototype 2 ***********


 ***** ROUTINE COMPLETED *****  CP =         3.682


 --- Number of total nodes = 197510
 --- Number of contact elements = 12842
 --- Number of spring elements = 48
 --- Number of bearing elements = 0
 --- Number of solid elements = 43960
 --- Number of total elements = 56851

 *GET  _WALLBSOL  FROM  ACTI  ITEM=TIME WALL  VALUE=  14.9333333    
 ****************************************************************************
 *************************    SOLUTION       ********************************
 ****************************************************************************

 *****  ANSYS SOLUTION ROUTINE  *****


 PERFORM A STATIC ANALYSIS
  THIS WILL BE A NEW ANALYSIS

 USE SPARSE MATRIX DIRECT SOLVER

 CONTACT INFORMATION PRINTOUT LEVEL       1

 NLDIAG: Nonlinear diagnostics CONT option is set to ON. 
         Writing frequency : each ITERATION.

 DEFINE RESTART CONTROL FOR LOADSTEP LAST
 AT FREQUENCY OF LAST AND NUMBER FOR OVERWRITE IS    0

 DELETE RESTART FILES OF ENDSTEP
 ****************************************************
 ******************* SOLVE FOR LS 1 ****************

 SELECT       FOR ITEM=TYPE COMPONENT=    
  IN RANGE         6 TO          6 STEP          1

         32  ELEMENTS (OF      56851  DEFINED) SELECTED BY  ESEL  COMMAND.

 SELECT      ALL NODES HAVING ANY ELEMENT IN ELEMENT SET.

      144 NODES (OF   197510  DEFINED) SELECTED FROM
       32 SELECTED ELEMENTS BY NSLE COMMAND.

 SPECIFIED SURFACE LOAD PRES FOR ALL SELECTED ELEMENTS  LKEY =  1   KVAL = 1
      SET ACCORDING TO TABLE PARAMETER = _LOADVARI50X                    

 SPECIFIED SURFACE LOAD PRES FOR ALL SELECTED ELEMENTS  LKEY =  2   KVAL = 1
      SET ACCORDING TO TABLE PARAMETER = _LOADVARI50Y                    

 SPECIFIED SURFACE LOAD PRES FOR ALL SELECTED ELEMENTS  LKEY =  3   KVAL = 1
      SET ACCORDING TO TABLE PARAMETER = _LOADVARI50Z                    

 ALL SELECT   FOR ITEM=NODE COMPONENT=    
  IN RANGE         1 TO     197510 STEP          1

     197510  NODES (OF     197510  DEFINED) SELECTED BY NSEL  COMMAND.

 ALL SELECT   FOR ITEM=ELEM COMPONENT=    
  IN RANGE         1 TO      56851 STEP          1

      56851  ELEMENTS (OF      56851  DEFINED) SELECTED BY  ESEL  COMMAND.
 *********** Create Acceleration ***********

 SET PARAMETER DIMENSIONS ON  _ACELX TYPE=TABL  DIMENSIONS=     2     1     1
  TIME                        

 PARAMETER _ACELX(1,0,1) =     0.000000000    

 PARAMETER _ACELX(2,0,1) =     1.000000000    

 PARAMETER _ACELX(1,1,1) =     0.000000000    

 PARAMETER _ACELX(2,1,1) =     0.000000000    

 SET PARAMETER DIMENSIONS ON  _ACELY TYPE=TABL  DIMENSIONS=     2     1     1
  TIME                        

 PARAMETER _ACELY(1,0,1) =     0.000000000    

 PARAMETER _ACELY(2,0,1) =     1.000000000    

 PARAMETER _ACELY(1,1,1) =     0.000000000    

 PARAMETER _ACELY(2,1,1) =     0.000000000    

 SET PARAMETER DIMENSIONS ON  _ACELZ TYPE=TABL  DIMENSIONS=     2     1     1
  TIME                        

 PARAMETER _ACELZ(1,0,1) =     0.000000000    

 PARAMETER _ACELZ(2,0,1) =     1.000000000    

 PARAMETER _ACELZ(1,1,1) =     0.000000000    

 PARAMETER _ACELZ(2,1,1) =     9.806650000    
 
 ACELX IS SET ACCORDING TO TABLE PARAMETER = _ACELX  
 ACELY IS SET ACCORDING TO TABLE PARAMETER = _ACELY  
 ACELZ IS SET ACCORDING TO TABLE PARAMETER = _ACELZ  

 PRINTOUT RESUMED BY /GOP

 USE AUTOMATIC TIME STEPPING THIS LOAD STEP

 USE       5 SUBSTEPS INITIALLY THIS LOAD STEP FOR ALL  DEGREES OF FREEDOM
 FOR AUTOMATIC TIME STEPPING:
   USE     20 SUBSTEPS AS A MAXIMUM
   USE      1 SUBSTEPS AS A MINIMUM

 TIME=  1.0000    

 ERASE THE CURRENT DATABASE OUTPUT CONTROL TABLE.


 WRITE ALL  ITEMS TO THE DATABASE WITH A FREQUENCY OF NONE
   FOR ALL APPLICABLE ENTITIES

 WRITE NSOL ITEMS TO THE DATABASE WITH A FREQUENCY OF ALL 
   FOR ALL APPLICABLE ENTITIES

 WRITE RSOL ITEMS TO THE DATABASE WITH A FREQUENCY OF ALL 
   FOR ALL APPLICABLE ENTITIES

 WRITE STRS ITEMS TO THE DATABASE WITH A FREQUENCY OF ALL 
   FOR ALL APPLICABLE ENTITIES

 WRITE EPEL ITEMS TO THE DATABASE WITH A FREQUENCY OF ALL 
   FOR ALL APPLICABLE ENTITIES

 WRITE EPPL ITEMS TO THE DATABASE WITH A FREQUENCY OF ALL 
   FOR ALL APPLICABLE ENTITIES

 NONLINEAR STABILIZATION CONTROL:
 KEY=OFF 


 *GET  ANSINTER_  FROM  ACTI  ITEM=INT        VALUE=  0.00000000    

 *IF  ANSINTER_                         ( =   0.00000     )  NE  
      0                                 ( =   0.00000     )  THEN    

 *ENDIF

 *****  ANSYS SOLVE    COMMAND  *****

 *** WARNING ***                         CP =       3.838   TIME= 14:56:00
 Element shape checking is currently inactive.  Issue SHPP,ON or         
 SHPP,WARN to reactivate, if desired.                                    

 *** NOTE ***                            CP =       4.150   TIME= 14:56:00
 The model data was checked and warning messages were found.             
  Please review output or errors file (                                  
 H:\Version\git\ag\ansys\kontakt\_ProjectScratch\Scr98C7\file.err ) for  
 these warning messages.                                                 

 *** SELECTION OF ELEMENT TECHNOLOGIES FOR APPLICABLE ELEMENTS ***
      --- GIVE SUGGESTIONS AND RESET THE KEY OPTIONS ---

 ELEMENT TYPE    1 IS SOLID186. KEYOPT(2)=0 IS SUGGESTED AND HAS BEEN RESET.
  KEYOPT(1-12)=    0    0    0    0    0    0    0    0    0    0    0    0

 ELEMENT TYPE    2 IS SOLID186. KEYOPT(2)=0 IS SUGGESTED AND HAS BEEN RESET.
  KEYOPT(1-12)=    0    0    0    0    0    0    0    0    0    0    0    0



 *** ANSYS - ENGINEERING ANALYSIS SYSTEM  RELEASE Release 16.2     16.2     ***
 ANSYS Academic Teaching Advanced                  
 01051478  VERSION=WINDOWS x64   14:56:00  DEC 13, 2015 CP=      4.212

 model_01--Static Structural (A5)                                              



                       S O L U T I O N   O P T I O N S

   PROBLEM DIMENSIONALITY. . . . . . . . . . . . .3-D                  
   DEGREES OF FREEDOM. . . . . . UX   UY   UZ   ROTX ROTY ROTZ
   ANALYSIS TYPE . . . . . . . . . . . . . . . . .STATIC (STEADY-STATE)
   OFFSET TEMPERATURE FROM ABSOLUTE ZERO . . . . .  273.15    
   EQUATION SOLVER OPTION. . . . . . . . . . . . .SPARSE             
   NEWTON-RAPHSON OPTION . . . . . . . . . . . . .PROGRAM CHOSEN   
   GLOBALLY ASSEMBLED MATRIX . . . . . . . . . . .SYMMETRIC  

 *** WARNING ***                         CP =       4.399   TIME= 14:56:00
 Material number 4 (used by element 43961 ) should normally have at      
 least one MP or one TB type command associated with it.  Output of      
 energy by material may not be available.                                

 *** NOTE ***                            CP =       4.633   TIME= 14:56:00
 The step data was checked and warning messages were found.              
  Please review output or errors file (                                  
 H:\Version\git\ag\ansys\kontakt\_ProjectScratch\Scr98C7\file.err ) for  
 these warning messages.                                                 

 *** NOTE ***                            CP =       4.633   TIME= 14:56:00
 This nonlinear analysis defaults to using the full Newton-Raphson       
 solution procedure.  This can be modified using the NROPT command.      

 *** NOTE ***                            CP =       4.727   TIME= 14:56:01
 Internal nodes from 197511 to 197511 are created.                       
 1 internal nodes are used for handling degrees of freedom on pilot      
 nodes of rigid target surfaces.                                         

                      L O A D   S T E P   O P T I O N S

   LOAD STEP NUMBER. . . . . . . . . . . . . . . .     1
   TIME AT END OF THE LOAD STEP. . . . . . . . . .  1.0000    
   AUTOMATIC TIME STEPPING . . . . . . . . . . . .    ON
      INITIAL NUMBER OF SUBSTEPS . . . . . . . . .     5
      MAXIMUM NUMBER OF SUBSTEPS . . . . . . . . .    20
      MINIMUM NUMBER OF SUBSTEPS . . . . . . . . .     1
   MAXIMUM NUMBER OF EQUILIBRIUM ITERATIONS. . . .    15
   STEP CHANGE BOUNDARY CONDITIONS . . . . . . . .    NO
   TERMINATE ANALYSIS IF NOT CONVERGED . . . . . .YES (EXIT)  
   CONVERGENCE CONTROLS. . . . . . . . . . . . . .USE DEFAULTS
   INERTIA LOADS                        X           Y           Z 
      ACEL . . . . . . . . . . . ._ACELX      _ACELY      _ACELZ      
   PRINT OUTPUT CONTROLS . . . . . . . . . . . . .NO PRINTOUT
   DATABASE OUTPUT CONTROLS
      ITEM     FREQUENCY   COMPONENT
       ALL       NONE               
      NSOL        ALL               
      RSOL        ALL               
      STRS        ALL               
      EPEL        ALL               
      EPPL        ALL               


 SOLUTION MONITORING INFO IS WRITTEN TO FILE= file.mntr                                                                                                                                                                                                                                                           

 *** NOTE ***                            CP =       7.925   TIME= 14:56:03
 It is highly recommended to use the auto contact setting option by      
 issuing CNCHECK,AUTO command for this problem in order to achieve       
 better convergence.                                                     

 *** NOTE ***                            CP =       7.925   TIME= 14:56:03
 Symmetric Deformable- deformable contact pair identified by real        
 constant set 3 and contact element type 3 has been set up.  The         
 companion pair has real constant set ID 4.  Both pairs should have the  
 same behavior.                                                          
 ANSYS will keep the current pair and deactivate its companion pair,     
 resulting in asymmetric contact.                                        
 Contact algorithm: Augmented Lagrange method
 Contact detection at: Gauss integration point
 Contact stiffness factor FKN                  1.0000    
 The resulting initial contact stiffness      0.57530E+14
 Default penetration tolerance factor FTOLN   0.10000    
 The resulting penetration tolerance          0.10429E-02
 Max. initial friction coefficient MU         0.50000    
 Default tangent stiffness factor FKT          1.0000    
 Default elastic slip factor SLTOL            0.10000E-01
 The resulting elastic slip                   0.90458E-04
 Update contact stiffness at each iteration
 Default Max. friction stress TAUMAX          0.10000E+21
 Average contact surface length               0.90458E-02
 Average contact pair depth                   0.10429E-01
 Default pinball region factor PINB            1.0000    
 The resulting pinball region                 0.11001E-01
 Contact offset towards to contact CNOF       0.10000E-01
 *WARNING*: Initial penetration is included.

 *** NOTE ***                            CP =       7.925   TIME= 14:56:03
 Max.  Initial penetration 5.000240869E-03 was detected between contact  
 element 49512 and target element 51515.                                 
 You may move entire target surface by : x= 3.860122092E-03, y=          
 3.178343307E-03, z= -7.036701694E-11,to reduce initial penetration.     
 ****************************************
  

 *** NOTE ***                            CP =       7.925   TIME= 14:56:03
 Symmetric Deformable- deformable contact pair identified by real        
 constant set 4 and contact element type 3 has been set up.  The         
 companion pair has real constant set ID 3.  Both pairs should have the  
 same behavior.                                                          
 ANSYS will deactivate the current pair and keep its companion pair,     
 resulting in asymmetric contact.                                        
 Contact algorithm: Augmented Lagrange method
 Contact detection at: Gauss integration point
 Contact stiffness factor FKN                  1.0000    
 The resulting initial contact stiffness      0.57530E+14
 Default penetration tolerance factor FTOLN   0.10000    
 The resulting penetration tolerance          0.44898E-02
 Max. initial friction coefficient MU         0.50000    
 Default tangent stiffness factor FKT          1.0000    
 Default elastic slip factor SLTOL            0.10000E-01
 The resulting elastic slip                   0.26341E-03
 Update contact stiffness at each iteration
 Default Max. friction stress TAUMAX          0.10000E+21
 Average contact surface length               0.26341E-01
 Average contact pair depth                   0.44898E-01
 Default pinball region factor PINB            1.0000    
 The resulting pinball region                 0.44898E-01

 *** NOTE ***                            CP =       7.925   TIME= 14:56:03
 One of the contact searching regions contains at least 196 target       
 elements.  You may reduce the pinball radius.                           
 Contact offset towards to contact CNOF       0.10000E-01
 *WARNING*: Initial penetration is included.

 *** NOTE ***                            CP =       7.925   TIME= 14:56:03
 Max.  Initial penetration 4.999507885E-03 was detected between contact  
 element 50917 and target element 45917.                                 
 You may move entire target surface by : x= -4.535571575E-03, y=         
 -2.103252144E-03, z= 2.014198397E-17,to reduce initial penetration.     
 ****************************************
  

 *** NOTE ***                            CP =       7.925   TIME= 14:56:03
 Rigid-deformable contact pair identified by real constant set 7 and     
 contact element type 7 has been set up.  The degrees of freedom of the  
 rigid surface are driven by the pilot node 191836.                      
 Please verify constraints on the pilot node which may be
  automatically fixed by ANSYS.
 Contact algorithm: Augmented Lagrange method
 Contact detection at: Gauss integration point
 Default contact stiffness factor FKN          1.0000    
 The resulting initial contact stiffness      0.61011E+14
 Default penetration tolerance factor FTOLN   0.10000    
 The resulting penetration tolerance          0.10827E-02
 Frictionless contact pair is defined
 Average contact surface length               0.19200E-01
 Average contact pair depth                   0.10827E-01
 Default pinball region factor PINB            1.5000    
 The resulting pinball region                 0.16240E-01

 *** NOTE ***                            CP =       7.925   TIME= 14:56:03
 One of the contact searching regions contains at least 56 target        
 elements.  You may reduce the pinball radius.                           
 *WARNING*: Initial penetration is included.

 *** NOTE ***                            CP =       7.925   TIME= 14:56:03
 Max.  Initial penetration 2.220446049E-16 was detected between contact  
 element 53226 and target element 55023.                                 
 ****************************************
  

 *** WARNING ***                         CP =       7.925   TIME= 14:56:03
 Maximum friction coefficient 0.5 is defined in the model.  Switch to    
 the unsymmetric solver (NROP,UNSYM) instead if convergence difficulty   
 is encountered.                                                         
  
  
 MAXIMUM NUMBER OF EQUILIBRIUM ITERATIONS HAS BEEN MODIFIED              
  TO BE, NEQIT = 26, BY SOLUTION CONTROL LOGIC.                          

  
 The FEA model contains 0 external CE equations and 3 internal CE        
 equations.                                                              
  
 *************************************************
  SUMMARY FOR CONTACT PAIR IDENTIFIED BY REAL CONSTANT SET           3
 Max.  Penetration of -5.000240869E-03 has been detected between contact 
 element 49512 and target element 51515.                                 
 For total 3456 contact elements, there are 3456 elements are in         
 contact.                                                                
 There are 3456 elements are in sticking.                                
 Contacting area 0.314159265.                                            
 13824 contact points have too much penetration (do not meet             
 compatibility condition).                                               
 Max.  Pinball distance 1.100143135E-02.                                 
 One of the contact searching regions contains at least 15 target        
 elements.                                                               
 Max.  Pressure/force 2.876662657E+11.                                   
 Max.  Normal stiffness 5.753048167E+13.                                 
 Min.  Normal stiffness 5.753048167E+13.                                 
 Max.  Tangential stiffness 1.590055173E+15.                             
 Min.  Tangential stiffness 1.589650417E+15.                             
 *************************************************
  
 *************************************************
  SUMMARY FOR CONTACT PAIR IDENTIFIED BY REAL CONSTANT SET           4

 *** NOTE ***                            CP =      29.250   TIME= 14:56:15
 Contact pair is inactive.                                               
  
 *************************************************
  SUMMARY FOR CONTACT PAIR IDENTIFIED BY REAL CONSTANT SET           7
 Max.  Penetration of -2.220446049E-16 has been detected between contact 
 element 53225 and target element 55022.                                 
 For total 1797 contact elements, there are 1796 elements are in         
 contact.                                                                
 Contacting area 0.842533058.                                            
 Max.  Pinball distance 1.624001314E-02.                                 
 One of the contact searching regions contains at least 49 target        
 elements.                                                               
 Max.  Pressure/force 1.354714409E-02.                                   
 Max.  Normal stiffness 6.101091308E+13.                                 
 Min.  Normal stiffness 6.101091308E+13.                                 
 *************************************************


                         ***********  PRECISE MASS SUMMARY  ***********

   TOTAL RIGID BODY MASS MATRIX ABOUT ORIGIN
               Translational mass               |   Coupled translational/rotational mass
         1346.3        0.0000        0.0000     |     0.0000        134.63       0.38627E-05
         0.0000        1346.3        0.0000     |    -134.63        0.0000      -0.15651E-05
         0.0000        0.0000        1346.3     |   -0.38627E-05   0.15651E-05    0.0000    
     ------------------------------------------ | ------------------------------------------
                                                |         Rotational mass (inertia)
                                                |     339.24      -0.11739E-04   0.15248E-06
                                                |   -0.11739E-04    339.24       0.39065E-06
                                                |    0.15248E-06   0.39065E-06    121.72    

   TOTAL MASS =  1346.3    
     The mass principal axes coincide with the global Cartesian axes

   CENTER OF MASS (X,Y,Z)=  -0.11626E-08  -0.28692E-08   0.10000    

   TOTAL INERTIA ABOUT CENTER OF MASS
         325.78      -0.11739E-04  -0.40321E-08
       -0.11739E-04    325.78       0.43792E-08
       -0.40321E-08   0.43792E-08    121.72    
     The inertia principal axes coincide with the global Cartesian axes


  *** MASS SUMMARY BY ELEMENT TYPE ***

  TYPE      MASS
     1   369.679    
     2   976.604    

 Range of element maximum matrix coefficients in global coordinates
 Maximum = 3.833924327E+11 at element 54843.                             
 Minimum = 0.467916474 at element 56826.                                 

 *** WARNING ***                         CP =      29.515   TIME= 14:56:15
 Coefficient ratio exceeds 1.0e8 - Check results.                        

   *** ELEMENT MATRIX FORMULATION TIMES
  TYPE    NUMBER   ENAME      TOTAL CP  AVE CP

     1     42360  SOLID186     31.668   0.000748
     2      1600  SOLID186      0.936   0.000585
     3      4032  CONTA174      3.245   0.000805
     4      4032  TARGE170      0.094   0.000023
     5      1152  SURF154       0.437   0.000379
     6        32  SURF154       0.031   0.000975
     7      1797  CONTA174      1.342   0.000747
     8      1798  TARGE170      0.125   0.000069
     9        48  COMBIN14      0.000   0.000000
 Time at end of element matrix formulation CP = 29.5153885.              

 ALL CURRENT ANSYS DATA WRITTEN TO FILE NAME= file.rdb
  FOR POSSIBLE RESUME FROM THIS POINT
     THERE IS TOO MUCH PENETRATION AT13824  CONTACT POINTS OF THE 3D CONTACT ELEMENTS
     FORCE CONVERGENCE VALUE  = 0.4374E+10  CRITERION= 0.4203    

 *** NOTE ***                            CP =      30.108   TIME= 14:56:16
 The initial memory allocation (-m) has been exceeded.                   
  Supplemental memory allocations are being used.                        

 SPARSE MATRIX DIRECT SOLVER.
  Number of equations =      575505,    Maximum wavefront =   1110
  Memory allocated for solver =        1467.298 MB
  Memory required for in-core =       11203.033 MB
  Memory required for out-of-core =     661.116 MB


 *** NOTE ***                            CP =      53.883   TIME= 14:56:40
 The Sparse Matrix solver is currently running in the out-of-core memory 
 mode.  This memory mode may provide significantly worse performance     
 compared to the in-core memory mode, depending on the amount of         
 available system memory and I/O speed.  Please monitor the solver       
 performance to ensure that the large amount of I/O to the solver files  
 does not create a bottleneck for performance.                           
