
 ANSYS Academic Teaching Advanced                  


 *------------------------------------------------------------------*
 |                                                                  |
 |   W E L C O M E   T O   T H E   A N S Y S (R)  P R O G R A M     |
 |                                                                  |
 *------------------------------------------------------------------*




 ***************************************************************
 *            ANSYS Release 16.2     LEGAL NOTICES             *
 ***************************************************************
 *                                                             *
 * Copyright 2015 SAS IP, Inc.  All rights reserved.           *
 * Unauthorized use, distribution or duplication is            *
 * prohibited.                                                 *
 *                                                             *
 * Ansys is a registered trademark of ANSYS, Inc. or its       *
 * subsidiaries in the United States or other countries.       *
 * See the ANSYS, Inc. online documentation or the ANSYS, Inc. *
 * documentation CD or online help for the complete Legal      *
 * Notice.                                                     *
 *                                                             *
 ***************************************************************
 *                                                             *
 * THIS ANSYS SOFTWARE PRODUCT AND PROGRAM DOCUMENTATION       *
 * INCLUDE TRADE SECRETS AND CONFIDENTIAL AND PROPRIETARY      *
 * PRODUCTS OF ANSYS, INC., ITS SUBSIDIARIES, OR LICENSORS.    *
 * The software products and documentation are furnished by    *
 * ANSYS, Inc. or its subsidiaries under a software license    *
 * agreement that contains provisions concerning               *
 * non-disclosure, copying, length and nature of use,          *
 * compliance with exporting laws, warranties, disclaimers,    *
 * limitations of liability, and remedies, and other           *
 * provisions.  The software products and documentation may be *
 * used, disclosed, transferred, or copied only in accordance  *
 * with the terms and conditions of that software license      *
 * agreement.                                                  *
 *                                                             *
 * ANSYS, Inc. is a UL registered                              *
 * ISO 9001:2008 company.                                      *
 *                                                             *
 ***************************************************************
 *                                                             *
 * This product is subject to U.S. laws governing export and   *
 * re-export.                                                  *
 *                                                             *
 * For U.S. Government users, except as specifically granted   *
 * by the ANSYS, Inc. software license agreement, the use,     *
 * duplication, or disclosure by the United States Government  *
 * is subject to restrictions stated in the ANSYS, Inc.        *
 * software license agreement and FAR 12.212 (for non-DOD      *
 * licenses).                                                  *
 *                                                             *
 ***************************************************************

 Release 16.2
     
 Point Releases and Patches installed:   
     
 ANSYS, Inc. Products Release 16.2   
 ANSYS Mechanical Products Release 16.2  
 ANSYS Customization Files for User Programmable Features Release 16.2   
 ANSYS Autodyn Release 16.2  
 ANSYS LS-DYNA Release 16.2  
 ANSYS CFX (includes ANSYS CFD-Post) Release 16.2
 ANSYS Fluent (includes ANSYS CFD-Post) Release 16.2 
 ANSYS TurboGrid Release 16.2
 ANSYS Polyflow (includes ANSYS CFD-Post) Release 16.2   
 ANSYS CFD-Post only Release 16.2
 ANSYS ICEM CFD Release 16.2 
 ANSYS Aqwa Release 16.2 
 ANSYS, Inc. License Manager Release 16.2


          *****  ANSYS COMMAND LINE ARGUMENTS  *****
  BATCH MODE REQUESTED (-b)    = NOLIST
  INPUT FILE COPY MODE (-c)    = COPY
  SHARED MEMORY PARALLEL REQUESTED
    SINGLE PROCESS WITH   2 THREADS REQUESTED
    TOTAL OF     2 CORES REQUESTED
  DESIGNXPLORER REQUESTED
  START-UP FILE MODE           = NOREAD
  STOP FILE MODE               = NOREAD

 RELEASE= Release 16.2         BUILD= 16.2      UP20150629   VERSION=WINDOWS x64 
 CURRENT JOBNAME=file  19:27:45  DEC 14, 2015 CP=      1.279


 PARAMETER _DS_PROGRESS =     999.0000000    

 /INPUT FILE= ds.dat  LINE=       0

 *GET  _WALLSTRT  FROM  ACTI  ITEM=TIME WALL  VALUE=  19.4625000    

 TITLE= 
 model_02--Static Structural (B5)                                              

  ACT Extensions:

 SET PARAMETER DIMENSIONS ON  _WB_PROJECTSCRATCH_DIR
  TYPE=STRI  DIMENSIONS=      248        1        1

 PARAMETER _WB_PROJECTSCRATCH_DIR(1) = H:\Version\git\ag\ansys\kontakt\_ProjectScratch\ScrCC9D\

 SET PARAMETER DIMENSIONS ON  _WB_SOLVERFILES_DIR
  TYPE=STRI  DIMENSIONS=      248        1        1

 PARAMETER _WB_SOLVERFILES_DIR(1) = H:\Version\git\ag\ansys\kontakt\model_02_files\dp0\SYS\MECH\

 SET PARAMETER DIMENSIONS ON  _WB_USERFILES_DIR
  TYPE=STRI  DIMENSIONS=      248        1        1

 PARAMETER _WB_USERFILES_DIR(1) = H:\Version\git\ag\ansys\kontakt\model_02_files\user_files\
 --- Data in consistent MKS units. See Solving Units in the help system for more

 MKS UNITS SPECIFIED FOR INTERNAL    
  LENGTH        (l)  = METER (M)
  MASS          (M)  = KILOGRAM (KG)
  TIME          (t)  = SECOND (SEC)
  TEMPERATURE   (T)  = CELSIUS (C)
  TOFFSET            = 273.0
  CHARGE        (Q)  = COULOMB
  FORCE         (f)  = NEWTON (N) (KG-M/SEC2)
  HEAT               = JOULE (N-M)

  PRESSURE           = PASCAL (NEWTON/M**2)
  ENERGY        (W)  = JOULE (N-M)
  POWER         (P)  = WATT (N-M/SEC)
  CURRENT       (i)  = AMPERE (COULOMBS/SEC)
  CAPACITANCE   (C)  = FARAD
  INDUCTANCE    (L)  = HENRY
  MAGNETIC FLUX      = WEBER
  RESISTANCE    (R)  = OHM
  ELECTRIC POTENTIAL = VOLT

 INPUT  UNITS ARE ALSO SET TO MKS 

 *** ANSYS - ENGINEERING ANALYSIS SYSTEM  RELEASE Release 16.2     16.2     ***
 ANSYS Academic Teaching Advanced                  
 01051478  VERSION=WINDOWS x64   19:27:45  DEC 14, 2015 CP=      1.357

 model_02--Static Structural (B5)                                              



          ***** ANSYS ANALYSIS DEFINITION (PREP7) *****
 *********** Nodes for the whole assembly ***********
 *********** Elements for Body 1 "block" ***********
 *********** Elements for Body 2 "pipe" ***********
 *********** Elements for Body 3 "rubber" ***********
 *********** Send User Defined Coordinate System(s) ***********
 *********** Set Reference Temperature ***********
 *********** Send Materials ***********
 *********** Create Contact "Contact Region" ***********
             Real Constant Set For Above Contact Is 5 & 4
 *********** Create Contact "Contact Region 2" ***********
             Real Constant Set For Above Contact Is 7 & 6
 *********** Fixed Supports ***********
 ********* Frictionless Supports Y *********
 *********** Define Force Using Surface Effect Elements ***********


 ***** ROUTINE COMPLETED *****  CP =         3.104


 --- Number of total nodes = 212828
 --- Number of contact elements = 16855
 --- Number of spring elements = 0
 --- Number of bearing elements = 0
 --- Number of solid elements = 47163
 --- Number of total elements = 64018

 *GET  _WALLBSOL  FROM  ACTI  ITEM=TIME WALL  VALUE=  19.4630556    
 ****************************************************************************
 *************************    SOLUTION       ********************************
 ****************************************************************************

 *****  ANSYS SOLUTION ROUTINE  *****


 PERFORM A STATIC ANALYSIS
  THIS WILL BE A NEW ANALYSIS

 USE A MAXIMUM OF     1 EQUILIBRIUM ITERATIONS EACH SUBSTEP

 *** WARNING ***                         CP =       3.136   TIME= 19:27:47
 Using 1 iteration per substep may result in unconverged solutions for   
 nonlinear analysis and the program may not indicate divergence in this  
 case.  Check your results.                                              

 DO NOT USE PREDICTOR METHOD FOR  ALL DEGREES OF FREEDOM

 USE PRECONDITIONED CONJUGATE GRADIENT SOLVER
  CONVERGENCE TOLERANCE = 1.00000E-08
  MAXIMUM ITERATION     = NumNode*DofPerNode*  1.0000    

 CONTACT INFORMATION PRINTOUT LEVEL       1

 NLDIAG: Nonlinear diagnostics CONT option is set to ON. 
         Writing frequency : each ITERATION.

 DO NOT SAVE ANY RESTART FILES AT ALL
 ****************************************************
 ******************* SOLVE FOR LS 1 ****************

 SELECT       FOR ITEM=TYPE COMPONENT=    
  IN RANGE         8 TO          8 STEP          1

         11  ELEMENTS (OF      64018  DEFINED) SELECTED BY  ESEL  COMMAND.

 SELECT      ALL NODES HAVING ANY ELEMENT IN ELEMENT SET.

       58 NODES (OF   212828  DEFINED) SELECTED FROM
       11 SELECTED ELEMENTS BY NSLE COMMAND.

 SPECIFIED SURFACE LOAD PRES FOR ALL SELECTED ELEMENTS  LKEY =  1   KVAL = 1
      SET ACCORDING TO TABLE PARAMETER = _LOADVARI51X                    

 SPECIFIED SURFACE LOAD PRES FOR ALL SELECTED ELEMENTS  LKEY =  2   KVAL = 1
      SET ACCORDING TO TABLE PARAMETER = _LOADVARI51Y                    

 SPECIFIED SURFACE LOAD PRES FOR ALL SELECTED ELEMENTS  LKEY =  3   KVAL = 1
      SET ACCORDING TO TABLE PARAMETER = _LOADVARI51Z                    

 ALL SELECT   FOR ITEM=NODE COMPONENT=    
  IN RANGE         1 TO     212828 STEP          1

     212828  NODES (OF     212828  DEFINED) SELECTED BY NSEL  COMMAND.

 ALL SELECT   FOR ITEM=ELEM COMPONENT=    
  IN RANGE         1 TO      64018 STEP          1

      64018  ELEMENTS (OF      64018  DEFINED) SELECTED BY  ESEL  COMMAND.

 PRINTOUT RESUMED BY /GOP

 USE       1 SUBSTEPS INITIALLY THIS LOAD STEP FOR ALL  DEGREES OF FREEDOM
 FOR AUTOMATIC TIME STEPPING:
   USE      1 SUBSTEPS AS A MAXIMUM
   USE      1 SUBSTEPS AS A MINIMUM

 TIME=  1.0000    

 ERASE THE CURRENT DATABASE OUTPUT CONTROL TABLE.


 WRITE ALL  ITEMS TO THE DATABASE WITH A FREQUENCY OF NONE
   FOR ALL APPLICABLE ENTITIES

 WRITE NSOL ITEMS TO THE DATABASE WITH A FREQUENCY OF ALL 
   FOR ALL APPLICABLE ENTITIES

 WRITE RSOL ITEMS TO THE DATABASE WITH A FREQUENCY OF ALL 
   FOR ALL APPLICABLE ENTITIES

 WRITE STRS ITEMS TO THE DATABASE WITH A FREQUENCY OF ALL 
   FOR ALL APPLICABLE ENTITIES

 WRITE EPEL ITEMS TO THE DATABASE WITH A FREQUENCY OF ALL 
   FOR ALL APPLICABLE ENTITIES

 WRITE EPPL ITEMS TO THE DATABASE WITH A FREQUENCY OF ALL 
   FOR ALL APPLICABLE ENTITIES

 NONLINEAR STABILIZATION CONTROL:
 KEY=OFF 


 *GET  ANSINTER_  FROM  ACTI  ITEM=INT        VALUE=  0.00000000    

 *IF  ANSINTER_                         ( =   0.00000     )  NE  
      0                                 ( =   0.00000     )  THEN    

 *ENDIF

 *****  ANSYS SOLVE    COMMAND  *****

 *** WARNING ***                         CP =       3.198   TIME= 19:27:47
 Element shape checking is currently inactive.  Issue SHPP,ON or         
 SHPP,WARN to reactivate, if desired.                                    

 *** NOTE ***                            CP =       5.476   TIME= 19:27:48
 The model data was checked and warning messages were found.             
  Please review output or errors file (                                  
 H:\Version\git\ag\ansys\kontakt\_ProjectScratch\ScrCC9D\file.err ) for  
 these warning messages.                                                 

 *** SELECTION OF ELEMENT TECHNOLOGIES FOR APPLICABLE ELEMENTS ***
      --- GIVE SUGGESTIONS AND RESET THE KEY OPTIONS ---

 ELEMENT TYPE    1 IS SOLID186. KEYOPT(2)=0 IS SUGGESTED AND HAS BEEN RESET.
  KEYOPT(1-12)=    0    0    0    0    0    0    0    0    0    0    0    0

 ELEMENT TYPE    2 IS SOLID186. KEYOPT(2)=0 IS SUGGESTED AND HAS BEEN RESET.
  KEYOPT(1-12)=    0    0    0    0    0    0    0    0    0    0    0    0

 ELEMENT TYPE    3 IS SOLID186. KEYOPT(2)=0 IS SUGGESTED AND HAS BEEN RESET.
  KEYOPT(1-12)=    0    0    0    0    0    0    0    0    0    0    0    0



 *** ANSYS - ENGINEERING ANALYSIS SYSTEM  RELEASE Release 16.2     16.2     ***
 ANSYS Academic Teaching Advanced                  
 01051478  VERSION=WINDOWS x64   19:27:48  DEC 14, 2015 CP=      5.491

 model_02--Static Structural (B5)                                              



                       S O L U T I O N   O P T I O N S

   PROBLEM DIMENSIONALITY. . . . . . . . . . . . .3-D                  
   DEGREES OF FREEDOM. . . . . . UX   UY   UZ  
   ANALYSIS TYPE . . . . . . . . . . . . . . . . .STATIC (STEADY-STATE)
   OFFSET TEMPERATURE FROM ABSOLUTE ZERO . . . . .  273.15    
   EQUATION SOLVER OPTION. . . . . . . . . . . . .PCG                
      TOLERANCE. . . . . . . . . . . . . . . . . . 1.00000E-08
   NEWTON-RAPHSON OPTION . . . . . . . . . . . . .PROGRAM CHOSEN   
   GLOBALLY ASSEMBLED MATRIX . . . . . . . . . . .SYMMETRIC  

 *** WARNING ***                         CP =       5.585   TIME= 19:27:48
 Material number 5 (used by element 47164 ) should normally have at      
 least one MP or one TB type command associated with it.  Output of      
 energy by material may not be available.                                

 *** NOTE ***                            CP =       5.694   TIME= 19:27:48
 The step data was checked and warning messages were found.              
  Please review output or errors file (                                  
 H:\Version\git\ag\ansys\kontakt\_ProjectScratch\ScrCC9D\file.err ) for  
 these warning messages.                                                 

 *** NOTE ***                            CP =       5.694   TIME= 19:27:48
 This nonlinear analysis defaults to using the full Newton-Raphson       
 solution procedure.  This can be modified using the NROPT command.      

 *** NOTE ***                            CP =       5.694   TIME= 19:27:48
 The conditions for direct assembly have been met.  No .emat or .erot    
 files will be produced.                                                 

                      L O A D   S T E P   O P T I O N S

   LOAD STEP NUMBER. . . . . . . . . . . . . . . .     1
   TIME AT END OF THE LOAD STEP. . . . . . . . . .  1.0000    
   AUTOMATIC TIME STEPPING . . . . . . . . . . . .    ON
      INITIAL NUMBER OF SUBSTEPS . . . . . . . . .     1
      MAXIMUM NUMBER OF SUBSTEPS . . . . . . . . .     1
      MINIMUM NUMBER OF SUBSTEPS . . . . . . . . .     1
   MAXIMUM NUMBER OF EQUILIBRIUM ITERATIONS. . . .     1
   STEP CHANGE BOUNDARY CONDITIONS . . . . . . . .    NO
   TERMINATE ANALYSIS IF NOT CONVERGED . . . . . .YES (EXIT)  
   CONVERGENCE CONTROLS. . . . . . . . . . . . . .USE DEFAULTS
   PRINT OUTPUT CONTROLS . . . . . . . . . . . . .NO PRINTOUT
   DATABASE OUTPUT CONTROLS
      ITEM     FREQUENCY   COMPONENT
       ALL       NONE               
      NSOL        ALL               
      RSOL        ALL               
      STRS        ALL               
      EPEL        ALL               
      EPPL        ALL               


 SOLUTION MONITORING INFO IS WRITTEN TO FILE= file.mntr                                                                                                                                                                                                                                                           

 *** NOTE ***                            CP =       8.424   TIME= 19:27:50
 It is highly recommended to use the auto contact setting option by      
 issuing CNCHECK,AUTO command for this problem in order to achieve       
 better convergence.                                                     

 *** NOTE ***                            CP =       8.424   TIME= 19:27:50
 Symmetric Deformable- deformable contact pair identified by real        
 constant set 4 and contact element type 4 has been set up.  The         
 companion pair has real constant set ID 5.  Both pairs should have the  
 same behavior.                                                          
 ANSYS will deactivate the current pair and keep its companion pair,     
 resulting in asymmetric contact.                                        
 Contact algorithm: Augmented Lagrange method
 Contact detection at: Gauss integration point
 Contact stiffness factor FKN                  10.000    
 The resulting initial contact stiffness      0.20408E+12
 Default penetration tolerance factor FTOLN   0.10000    
 The resulting penetration tolerance          0.41467E-02
 Default opening contact stiffness OPSF will be used.
 Default tangent stiffness factor FKT          1.0000    
 Default elastic slip factor SLTOL            0.50000E-02
 The resulting elastic slip                   0.24877E-03
 Update contact stiffness at each iteration
 Default Max. friction stress TAUMAX          0.10000E+21
 Average contact surface length               0.49754E-01
 Average contact pair depth                   0.41467E-01
 Default pinball region factor PINB           0.25000    
 The resulting pinball region                 0.10367E-01
 Initial penetration/gap is excluded.
 Bonded contact (always) is defined.

 *** NOTE ***                            CP =       8.424   TIME= 19:27:50
 Max.  Initial penetration 9.054960803E-07 was detected between contact  
 element 47469 and target element 54353.                                 
 You may move entire target surface by : x= 8.500526252E-07, y=          
 -3.119834705E-07, z= 8.857372756E-16,to reduce initial penetration.     
 ****************************************
  

 *** NOTE ***                            CP =       8.424   TIME= 19:27:50
 Symmetric Deformable- deformable contact pair identified by real        
 constant set 5 and contact element type 4 has been set up.  The         
 companion pair has real constant set ID 4.  Both pairs should have the  
 same behavior.                                                          
 ANSYS will keep the current pair and deactivate its companion pair,     
 resulting in asymmetric contact.                                        
 Contact algorithm: Augmented Lagrange method
 Contact detection at: Gauss integration point
 Contact stiffness factor FKN                  10.000    
 The resulting initial contact stiffness      0.20408E+12
 Default penetration tolerance factor FTOLN   0.10000    
 The resulting penetration tolerance          0.98000E-03
 Default opening contact stiffness OPSF will be used.
 Default tangent stiffness factor FKT          1.0000    
 Default elastic slip factor SLTOL            0.50000E-02
 The resulting elastic slip                   0.53349E-04
 Update contact stiffness at each iteration
 Default Max. friction stress TAUMAX          0.10000E+21
 Average contact surface length               0.10670E-01
 Average contact pair depth                   0.98000E-02
 Default pinball region factor PINB           0.25000    
 The resulting pinball region                 0.24500E-02
 Initial penetration/gap is excluded.
 Bonded contact (always) is defined.

 *** NOTE ***                            CP =       8.424   TIME= 19:27:50
 Max.  Initial penetration 1.235371926E-06 was detected between contact  
 element 47911 and target element 47180.                                 
 You may move entire target surface by : x= 1.156448826E-06, y=          
 4.3447659E-07, z= -5.213665784E-21,to reduce initial penetration.       
 ****************************************
  

 *** NOTE ***                            CP =       8.424   TIME= 19:27:50
 Symmetric Deformable- deformable contact pair identified by real        
 constant set 6 and contact element type 6 has been set up.  The         
 companion pair has real constant set ID 7.  Both pairs should have the  
 same behavior.                                                          
 ANSYS will deactivate the current pair and keep its companion pair,     
 resulting in asymmetric contact.                                        
 Contact algorithm: Augmented Lagrange method
 Contact detection at: Gauss integration point
 Contact stiffness factor FKN                  10.000    
 The resulting initial contact stiffness      0.19359E+12
 Default penetration tolerance factor FTOLN   0.10000    
 The resulting penetration tolerance          0.18652E-02
 Default opening contact stiffness OPSF will be used.
 Default tangent stiffness factor FKT          1.0000    
 Default elastic slip factor SLTOL            0.50000E-02
 The resulting elastic slip                   0.22175E-03
 Update contact stiffness at each iteration
 Default Max. friction stress TAUMAX          0.10000E+21
 Average contact surface length               0.44349E-01
 Average contact pair depth                   0.18652E-01
 Default pinball region factor PINB           0.25000    
 The resulting pinball region                 0.46631E-02
 Initial penetration/gap is excluded.
 Bonded contact (always) is defined.

 *** NOTE ***                            CP =       8.424   TIME= 19:27:50
 Min.  Initial gap 1.530896997E-06 was detected between contact element  
 55171 and target element 63727.                                         
 The gap is closed due to initial settings.                              
 ****************************************
  

 *** NOTE ***                            CP =       8.424   TIME= 19:27:50
 Symmetric Deformable- deformable contact pair identified by real        
 constant set 7 and contact element type 6 has been set up.  The         
 companion pair has real constant set ID 6.  Both pairs should have the  
 same behavior.                                                          
 ANSYS will keep the current pair and deactivate its companion pair,     
 resulting in asymmetric contact.                                        
 Contact algorithm: Augmented Lagrange method
 Contact detection at: Gauss integration point
 Contact stiffness factor FKN                  10.000    
 The resulting initial contact stiffness      0.19359E+12
 Default penetration tolerance factor FTOLN   0.10000    
 The resulting penetration tolerance          0.10331E-02
 Default opening contact stiffness OPSF will be used.
 Default tangent stiffness factor FKT          1.0000    
 Default elastic slip factor SLTOL            0.50000E-02
 The resulting elastic slip                   0.47166E-04
 Update contact stiffness at each iteration
 Default Max. friction stress TAUMAX          0.10000E+21
 Average contact surface length               0.94332E-02
 Average contact pair depth                   0.10331E-01
 Default pinball region factor PINB           0.25000    
 The resulting pinball region                 0.25828E-02
 Initial penetration/gap is excluded.
 Bonded contact (always) is defined.

 *** NOTE ***                            CP =       8.424   TIME= 19:27:50
 Max.  Initial penetration 1.549795216E-07 was detected between contact  
 element 59443 and target element 54976.                                 
 You may move entire target surface by : x= 1.534852807E-07, y=          
 -2.146906458E-08, z= 1.789087579E-16,to reduce initial penetration.     
 ****************************************
  
  
  


 *** NOTE ***                            CP =       9.656   TIME= 19:27:51
 The PCG solver has automatically set the level of difficulty for this   
 model to 2.                                                             
  
 *************************************************
  SUMMARY FOR CONTACT PAIR IDENTIFIED BY REAL CONSTANT SET           4

 *** NOTE ***                            CP =      39.671   TIME= 19:28:09
 Contact pair is inactive.                                               
  
 *************************************************
  SUMMARY FOR CONTACT PAIR IDENTIFIED BY REAL CONSTANT SET           5
 Max.  Penetration of -1.436530032E-16 has been detected between contact 
 element 48258 and target element 47200.                                 
  
 Max.  Geometrical gap of 5.688508913E-07 has been detected between      
 contact element 47911 and target element 47180.                         
  
 Max.  Geometrical penetration of -1.235371926E-06 has been detected     
 between contact element 47911 and target element 47180.                 
 For total 3654 contact elements, there are 3150 elements are in         
 contact.                                                                
 There are 3150 elements are in sticking.                                
 Contacting area 0.39269908.                                             
 Max.  Pinball distance 2.450000285E-03.                                 
 One of the contact searching regions contains at least 6 target         
 elements.                                                               
 Max.  Pressure/force 2.931693603E-05.                                   
 Max.  Normal stiffness 2.040816089E+11.                                 
 Min.  Normal stiffness 2.040816089E+11.                                 
 Max.  Tangential stiffness 1.40582715E+11.                              
 Min.  Tangential stiffness 1.40582715E+11.                              
 *************************************************
  
 *************************************************
  SUMMARY FOR CONTACT PAIR IDENTIFIED BY REAL CONSTANT SET           6

 *** NOTE ***                            CP =      39.671   TIME= 19:28:09
 Contact pair is inactive.                                               
  
 *************************************************
  SUMMARY FOR CONTACT PAIR IDENTIFIED BY REAL CONSTANT SET           7
 Max.  Penetration of -1.205478713E-16 has been detected between contact 
 element 58273 and target element 54933.                                 
  
 Max.  Geometrical gap of 2.151082554E-06 has been detected between      
 contact element 57103 and target element 54875.                         
  
 Max.  Geometrical penetration of -1.549795216E-07 has been detected     
 between contact element 57103 and target element 54875.                 
 For total 4410 contact elements, there are 4410 elements are in         
 contact.                                                                
 There are 4410 elements are in sticking.                                
 Contacting area 0.329867228.                                            
 Max.  Pinball distance 2.582839918E-03.                                 
 One of the contact searching regions contains at least 9 target         
 elements.                                                               
 Max.  Pressure/force 2.333630327E-05.                                   
 Max.  Normal stiffness 1.935853618E+11.                                 
 Min.  Normal stiffness 1.935853618E+11.                                 
 Max.  Tangential stiffness 1.590133908E+11.                             
 Min.  Tangential stiffness 1.590133908E+11.                             
 *************************************************


                         ***********  PRECISE MASS SUMMARY  ***********

   TOTAL RIGID BODY MASS MATRIX ABOUT ORIGIN
               Translational mass               |   Coupled translational/rotational mass
         2033.3        0.0000        0.0000     |     0.0000       -404.74       -492.16    
         0.0000        2033.3        0.0000     |     404.74        0.0000      -0.28564E-04
         0.0000        0.0000        2033.3     |     492.16       0.28564E-04    0.0000    
     ------------------------------------------ | ------------------------------------------
                                                |         Rotational mass (inertia)
                                                |     1541.2      -0.14068E-05  -0.45685E-06
                                                |   -0.14068E-05    1541.2        113.79    
                                                |   -0.45685E-06    113.79        324.98    

   TOTAL MASS =  2033.3    
     The mass principal axes coincide with the global Cartesian axes

   CENTER OF MASS (X,Y,Z)=  -0.14048E-07   0.24205      -0.19906    

   TOTAL INERTIA ABOUT CENTER OF MASS
         1341.5      -0.83209E-05   0.52291E-05
       -0.83209E-05    1460.6        15.824    
        0.52291E-05    15.824        205.85    

   PRINCIPAL INERTIAS =    1341.5        1460.8        205.65    
   ORIENTATION VECTORS OF THE INERTIA PRINCIPAL AXES IN GLOBAL CARTESIAN
     ( 1.000, 0.000, 0.000) (-0.000, 1.000, 0.013) (-0.000,-0.013, 1.000) 


  *** MASS SUMMARY BY ELEMENT TYPE ***

  TYPE      MASS
     1   1577.17    
     2   414.308    
     3   41.7832    

 Range of element maximum matrix coefficients in global coordinates
 Maximum = 1.541205248E+10 at element 2409.                              
 Minimum = 135058.546 at element 7458.                                   

   *** ELEMENT MATRIX FORMULATION TIMES
  TYPE    NUMBER   ENAME      TOTAL CP  AVE CP

     1      1600  SOLID186      1.342   0.000839
     2      1463  SOLID186      1.170   0.000800
     3     44100  SOLID186     37.596   0.000853
     4      3814  CONTA174      3.557   0.000933
     5      3814  TARGE170      0.499   0.000131
     6      4608  CONTA174      5.179   0.001124
     7      4608  TARGE170      0.374   0.000081
     8        11  SURF154       0.000   0.000000
 Time at end of element matrix formulation CP = 39.7334557.              
     FORCE CONVERGENCE VALUE  = 0.1261E+05  CRITERION=  64.34    
 curEqn=  21746  totEqn=  21746 Job CP sec=     27.865
      Factor Done= 100% Factor Wall sec=      1.497 rate=    9291.2 Mflops
 Iteration=    10 Ratio=  0.186452     Limit=  1.000000E-08 Wall=     1.1
 Iteration=    90 Ratio=  9.086272E-04 Limit=  1.000000E-08 Wall=    11.4
 Iteration=   270 Ratio=  3.042471E-06 Limit=  1.000000E-08 Wall=    34.7

 PRECONDITIONED SOLVER CP TIME      =    60.265
 PRECONDITIONED SOLVER ELAPSED TIME =    60.262
     DISP CONVERGENCE VALUE   = 0.6169E-01  CRITERION= 0.3147E-02

   *** ELEMENT RESULT CALCULATION TIMES
  TYPE    NUMBER   ENAME      TOTAL CP  AVE CP

     1      1600  SOLID186      0.655   0.000410
     2      1463  SOLID186      0.780   0.000533
     3     44100  SOLID186     19.110   0.000433
     4      3746  CONTA174      1.030   0.000275
     6      4608  CONTA174      0.967   0.000210
     8        11  SURF154       0.000   0.000000

   *** NODAL LOAD CALCULATION TIMES
  TYPE    NUMBER   ENAME      TOTAL CP  AVE CP

     1      1600  SOLID186      0.062   0.000039
     2      1463  SOLID186      0.000   0.000000
     3     44100  SOLID186      0.187   0.000004
     4      3746  CONTA174      0.062   0.000017
     6      4608  CONTA174      0.094   0.000020
     8        11  SURF154       0.000   0.000000
 *** LOAD STEP     1   SUBSTEP     1  COMPLETED.    CUM ITER =      1
 *** TIME =   1.00000         TIME INC =   1.00000      NEW TRIANG MATRIX


 *** ANSYS BINARY FILE STATISTICS
  BUFFER SIZE USED= 16384
      337.812 MB WRITTEN ON ELEMENT SAVED DATA FILE: file.esav
       73.875 MB WRITTEN ON RESULTS FILE: file.rst
 *************** Write FE CONNECTORS *********

 WRITE OUT CONSTRAINT EQUATIONS TO FILE= file.ce                                                                                                                                                                                                                                                             
 ****************************************************
 *************** FINISHED SOLVE FOR LS 1 *************

 PARAMETER _DS_PROGRESS  DELETED.

 *GET  _WALLASOL  FROM  ACTI  ITEM=TIME WALL  VALUE=  19.4877778    

 PRINTOUT RESUMED BY /GOP

 *GET  _PCGITER  FROM  ACTI  ITEM=SOLU CGIT  VALUE=  445.000000    

 FINISH SOLUTION PROCESSING


 ***** ROUTINE COMPLETED *****  CP =       173.645



 *** ANSYS - ENGINEERING ANALYSIS SYSTEM  RELEASE Release 16.2     16.2     ***
 ANSYS Academic Teaching Advanced                  
 01051478  VERSION=WINDOWS x64   19:29:17  DEC 14, 2015 CP=    173.660

 model_02--Static Structural (B5)                                              



          ***** ANSYS RESULTS INTERPRETATION (POST1) *****

 *** NOTE ***                            CP =     173.660   TIME= 19:29:17
 Reading results into the database (SET command) will update the current 
 displacement and force boundary conditions in the database with the     
 values from the results file for that load set.  Note that any          
 subsequent solutions will use these values unless action is taken to    
 either SAVE the current values or not overwrite them (/EXIT,NOSAVE).    

 Set Encoding of XML File to:ISO-8859-1

 Set Output of XML File to:
     PARM,     ,     ,     ,     ,     ,     ,     ,     ,     ,     ,     ,
         ,     ,     ,     ,     ,     ,     ,

 DATABASE WRITTEN ON FILE  parm.xml                                                                                                                                                                                                                                                            

 EXIT THE ANSYS POST1 DATABASE PROCESSOR


 ***** ROUTINE COMPLETED *****  CP =       173.676



 PRINTOUT RESUMED BY /GOP

 *GET  _WALLDONE  FROM  ACTI  ITEM=TIME WALL  VALUE=  19.4880556    

 PARAMETER _PREPTIME =     2.000000000    

 PARAMETER _SOLVTIME =     89.00000000    

 PARAMETER _POSTTIME =     1.000000000    

 PARAMETER _TOTALTIM =     92.00000000    

 EXIT ANSYS WITHOUT SAVING DATABASE


 NUMBER OF WARNING MESSAGES ENCOUNTERED=          3
 NUMBER OF ERROR   MESSAGES ENCOUNTERED=          0

+--------------------- A N S Y S   S T A T I S T I C S ------------------------+

Release: Release 16.2       Build: 16.2       Update: UP20150629   Platform: WINDOWS x64 
Date Run: 12/14/2015   Time: 19:29
Windows Process ID:          748

Processor Model: Intel(R) Core(TM) i7 CPU       Q 740  @ 1.73GHz

Compiler: Intel(R) FORTRAN Compiler Version 14.0.0  (Build: 20140422)
          Intel(R) C/C++ Compiler Version 14.0.0  (Build: 20140422)
          Intel(R) Math Kernel Library Version 11.1.3 Product Build 20140917

Total number of cores available         :    8
Number of physical cores available      :    4
Number of processes requested           :    1
Number of threads per process requested :    2
Total number of cores requested         :    2 (Shared Memory Parallel)                    

GPU Acceleration: Not Requested

Job Name: file
Working Directory: H:\Version\git\ag\ansys\kontakt\_ProjectScratch\ScrCC9D

Total CPU time for main thread                    :       92.3 seconds
Total CPU time summed for all threads             :      173.7 seconds

Elapsed time spent pre-processing model (/PREP7)  :        1.1 seconds
Elapsed time spent solution - preprocessing       :        2.6 seconds
Elapsed time spent computing solution             :       86.8 seconds
Elapsed time spent solution - postprocessing      :        0.0 seconds
Elapsed time spent post-processing model (/POST1) :        0.0 seconds

Equation solver computational rate                :     4211.1 Mflops

Maximum total memory used                         :      841.0 MB
Maximum total memory allocated                    :     2112.0 MB
Maximum total memory available                    :          8 GB

+------------------ E N D   A N S Y S   S T A T I S T I C S -------------------+


 *---------------------------------------------------------------------------*
 |                                                                           |
 |                            ANSYS RUN COMPLETED                            |
 |                                                                           |
 |---------------------------------------------------------------------------|
 |                                                                           |
 | Ansys Release 16.2          Build 16.2         UP20150629     WINDOWS x64 |
 |                                                                           |
 |---------------------------------------------------------------------------|
 |                                                                           |
 | Database Requested(-db)  1024 MB    Scratch Memory Requested      1024 MB |
 | Maximum Database Used     208 MB    Maximum Scratch Memory Used    633 MB |
 |                                                                           |
 |---------------------------------------------------------------------------|
 |                                                                           |
 |        CP Time      (sec) =        173.707       Time  =  19:29:19        |
 |        Elapsed Time (sec) =         96.000       Date  =  12/14/2015      |
 |                                                                           |
 *---------------------------------------------------------------------------*
